
Spectre (R) Circuit Simulator
Version 19.1.0.496.isr12 64bit -- 16 Oct 2020
Copyright (C) 1989-2020 Cadence Design Systems, Inc. All rights reserved worldwide. Cadence and Spectre are registered trademarks of Cadence Design Systems, Inc. All others are the property of their respective holders.

Includes RSA BSAFE(R) Cryptographic or Security Protocol Software from RSA Security, Inc.

User: lizongh2   Host: maroon.eecg   HostID: 64801B0A   PID: 24713
Memory  available: 73.8738 GB  physical: 270.4007 GB
Linux   : Debian GNU/Linux 9.13 (stretch)
CPU Type: Intel(R) Xeon(R) CPU E5-2683 v4 @ 2.10GHz
        Socket: Processors [Frequency] (Hyperthreaded Processor)
        0:       0 [2600.3] ( 16 ),  1 [2600.1] ( 17 ),  2 [2600.0] ( 18 )
                 3 [2499.9] ( 19 ),  4 [2600.0] ( 20 ),  5 [2599.9] ( 21 )
                 6 [2600.0] ( 22 ),  7 [2600.0] ( 23 ),  8 [2540.1] ( 24 )
                 9 [2600.1] ( 25 ), 10 [2600.0] ( 26 ), 11 [2600.1] ( 27 )
                12 [2499.9] ( 28 ), 13 [2600.0] ( 29 ), 14 [2587.3] ( 30 )
                15 [2600.0] ( 31 )
        
System load averages (1min, 5min, 15min) : 15.3 %, 15.8 %, 16.2 %
Hyperthreading is enabled


Simulating `/autofs/fs1.ece/fs1.eecg.tcc/lizongh2/TCoil_ML/spectre/train/tcoil7/playback_tcoil7_mod.scs -outdir /autofs/fs1.ece/fs1.eecg.tcc/lizongh2/TCoil_ML/spectre' on maroon.eecg at 4:33:52 PM, Wed May 26, 2021 (process id: 24713).
Current working directory: /autofs/fs1.ece/fs1.eecg.tcc/lizongh2/TCoil_ML/pytcoil/emx
Command line:
    /CMC/tools/cadence/SPECTRE19.10.496_lnx86/tools/bin/spectre -64  \
        /autofs/fs1.ece/fs1.eecg.tcc/lizongh2/TCoil_ML/spectre/train/tcoil7/playback_tcoil7_mod.scs\ -outdir\ /autofs/fs1.ece/fs1.eecg.tcc/lizongh2/TCoil_ML/spectre

Loading /CMC/tools/cadence/SPECTRE19.10.496_lnx86/tools.lnx86/cmi/lib/64bit/5.0/libinfineon_sh.so ...
Loading /CMC/tools/cadence/SPECTRE19.10.496_lnx86/tools.lnx86/cmi/lib/64bit/5.0/libphilips_o_sh.so ...
Loading /CMC/tools/cadence/SPECTRE19.10.496_lnx86/tools.lnx86/cmi/lib/64bit/5.0/libphilips_sh.so ...
Loading /CMC/tools/cadence/SPECTRE19.10.496_lnx86/tools.lnx86/cmi/lib/64bit/5.0/libsparam_sh.so ...
Loading /CMC/tools/cadence/SPECTRE19.10.496_lnx86/tools.lnx86/cmi/lib/64bit/5.0/libstmodels_sh.so ...

Error found by spectre.
    ERROR (CMI-2011): Unable to open the input file `/autofs/fs1.ece/fs1.eecg.tcc/lizongh2/TCoil_ML/spectre/train/tcoil7/playback_tcoil7_mod.scs -outdir /autofs/fs1.ece/fs1.eecg.tcc/lizongh2/TCoil_ML/spectre'.
         Ensure that the specified file or directory exists.


Aggregate audit (4:33:52 PM, Wed May 26, 2021):
Time used: CPU = 156 ms, elapsed = 307 ms, util. = 50.8%.
Time spent in licensing: elapsed = 181 ms, percentage of total = 59.1%.
Peak memory used = 83.2 Mbytes.
Simulation started at: 4:33:52 PM, Wed May 26, 2021, ended at: 4:33:52 PM, Wed May 26, 2021, with elapsed time (wall clock): 307 ms.
spectre completes with 1 error, 0 warnings, and 0 notices.
spectre terminated prematurely due to fatal error.
